Version 4
SHEET 1 1380 680
WIRE 48 -384 -272 -384
WIRE 512 -384 48 -384
WIRE 1232 -384 512 -384
WIRE -272 -272 -272 -384
WIRE 48 -272 48 -384
WIRE 512 -192 512 -384
WIRE 48 -144 48 -192
WIRE 112 -144 48 -144
WIRE 304 -144 192 -144
WIRE 448 -144 304 -144
WIRE -384 -112 -496 -112
WIRE -272 -112 -272 -192
WIRE -272 -112 -384 -112
WIRE 48 -112 48 -144
WIRE -496 -80 -496 -112
WIRE -384 -80 -384 -112
WIRE -272 -32 -272 -112
WIRE 48 -16 48 -48
WIRE 512 -16 512 -96
WIRE 512 -16 48 -16
WIRE 560 -16 512 -16
WIRE 688 -16 624 -16
WIRE 864 -16 688 -16
WIRE 1056 -16 864 -16
WIRE 48 0 48 -16
WIRE -496 16 -496 -16
WIRE -384 16 -384 -16
WIRE 1232 32 1232 -384
WIRE 48 128 48 80
WIRE 48 128 -144 128
WIRE 304 128 304 -144
WIRE 688 128 688 -16
WIRE 864 128 864 -16
WIRE 48 144 48 128
WIRE -416 176 -496 176
WIRE -272 176 -272 48
WIRE -272 176 -352 176
WIRE -208 176 -272 176
WIRE 240 176 192 176
WIRE 1056 208 1056 -16
WIRE 512 224 512 -16
WIRE -496 240 -496 176
WIRE -144 272 -144 224
WIRE 192 272 192 176
WIRE 192 272 -144 272
WIRE 304 272 304 224
WIRE 448 272 304 272
WIRE 864 288 864 208
WIRE -272 320 -272 176
WIRE -144 320 -144 272
WIRE 48 320 48 224
WIRE 304 320 304 272
WIRE -496 448 -496 320
WIRE -464 448 -496 448
WIRE -272 448 -272 400
WIRE -144 448 -144 400
WIRE 48 448 48 384
WIRE 304 448 304 400
WIRE 512 448 512 320
WIRE 688 448 688 208
WIRE 864 448 864 352
WIRE 1056 448 1056 288
WIRE 1232 448 1232 112
FLAG -272 448 0
FLAG -144 448 0
FLAG 48 448 0
FLAG 304 448 0
FLAG 512 448 0
FLAG 688 448 0
FLAG 864 448 0
FLAG -384 16 0
FLAG -496 16 0
FLAG 1232 448 0
FLAG 1056 448 0
FLAG -496 448 0
DATAFLAG 848 -16 ""
DATAFLAG 400 -144 ""
DATAFLAG 368 272 ""
DATAFLAG 512 96 ""
DATAFLAG 1056 112 ""
DATAFLAG -16 128 ""
DATAFLAG 48 -320 ""
DATAFLAG -272 112 ""
DATAFLAG 512 -64 ""
SYMBOL pnp -208 128 R0
SYMATTR InstName Q1
SYMATTR Value 2N3906
SYMBOL npn 240 128 R0
SYMATTR InstName Q2
SYMATTR Value 2SD1898
SYMBOL npn 448 -192 R0
SYMATTR InstName Q3
SYMATTR Value 2N3055
SYMBOL npn 448 224 R0
SYMATTR InstName Q4
SYMATTR Value 2N3055
SYMBOL res -288 -288 R0
SYMATTR InstName R1
SYMATTR Value 47k
SYMATTR SpiceLine pwr=0.5
SYMBOL res -288 -48 R0
SYMATTR InstName R2
SYMATTR Value 100k
SYMATTR SpiceLine pwr=0.5
SYMBOL res -288 304 R0
SYMATTR InstName R3
SYMATTR Value 100k
SYMATTR SpiceLine pwr=0.5
SYMBOL res -160 304 R0
SYMATTR InstName R4
SYMATTR Value 10k
SYMATTR SpiceLine pwr=0.5
SYMBOL res 32 -288 R0
SYMATTR InstName R5
SYMATTR Value 47
SYMATTR SpiceLine pwr=0.5
SYMBOL res 32 -16 R0
SYMATTR InstName R6
SYMATTR Value 2.7k
SYMATTR SpiceLine pwr=0.5
SYMBOL res 32 128 R0
SYMATTR InstName R7
SYMATTR Value 220
SYMATTR SpiceLine pwr=0.5
SYMBOL res 208 -160 R90
WINDOW 0 0 56 VBottom 2
WINDOW 3 32 56 VTop 2
SYMATTR InstName R8
SYMATTR Value 220
SYMATTR SpiceLine pwr=0.5
SYMBOL res 288 304 R0
SYMATTR InstName R9
SYMATTR Value 2.2k
SYMATTR SpiceLine pwr=0.5
SYMBOL res 672 112 R0
SYMATTR InstName R10
SYMATTR Value 10k
SYMATTR SpiceLine pwr=0.5
SYMBOL res 848 112 R0
SYMATTR InstName R11
SYMATTR Value 4.7
SYMATTR SpiceLine pwr=0.5
SYMBOL cap -512 -80 R0
SYMATTR InstName C1
SYMATTR Value 0.1µ
SYMATTR SpiceLine V=16 Irms=1.78 Rser=0.0675534 Lser=0 mfg="KEMET" pn="C1210F104K4RAC" type="X7R"
SYMBOL polcap -400 -80 R0
WINDOW 3 24 56 Left 2
SYMATTR Value 100µ
SYMATTR InstName C2
SYMATTR Description Capacitor
SYMATTR Type cap
SYMATTR SpiceLine V=16 Irms=135m Rser=0.8 Lser=0 mfg="Nichicon" pn="UPR1C101MPH" type="Al electrolytic"
SYMBOL cap -352 160 R90
WINDOW 0 0 32 VBottom 2
WINDOW 3 32 32 VTop 2
SYMATTR InstName C3
SYMATTR Value 0.47µ
SYMATTR SpiceLine V=16 Irms=0 Rser=0 Lser=0 mfg="Murata" pn="GRM033R61C103KA12" type="X5R"
SYMBOL polcap 32 -112 R0
SYMATTR InstName C4
SYMATTR Value 470µ
SYMATTR Description Capacitor
SYMATTR Type cap
SYMATTR SpiceLine V=16 Irms=770m Rser=0.09 Lser=0 mfg="Nichicon" pn="UPL1C471MPH6" type="Al electrolytic"
SYMBOL polcap 32 320 R0
WINDOW 3 24 56 Left 2
SYMATTR Value 220µ
SYMATTR InstName C5
SYMATTR Description Capacitor
SYMATTR Type cap
SYMATTR SpiceLine V=16 Irms=460m Rser=0.16 Lser=0 mfg="Nichicon" pn="UPL1C221MPH" type="Al electrolytic"
SYMBOL polcap 560 0 R270
WINDOW 0 32 32 VTop 2
WINDOW 3 0 32 VBottom 2
SYMATTR InstName C6
SYMATTR Value 4700µ
SYMATTR Description Capacitor
SYMATTR Type cap
SYMATTR SpiceLine V=16 Irms=2.68 Rser=0.02 Lser=0 mfg="Nichicon" pn="UPL1C472MRH" type="Al electrolytic"
SYMBOL cap 848 288 R0
SYMATTR InstName C7
SYMATTR Value 0.1µ
SYMATTR SpiceLine V=16 Irms=728m Rser=0.14361 Lser=0 mfg="KEMET" pn="C0603C104K4RAC" type="X7R"
SYMBOL voltage -496 224 R0
WINDOW 123 24 124 Left 2
WINDOW 39 0 0 Left 0
SYMATTR Value2 AC 0.3
SYMATTR InstName V1
SYMATTR Value SINE(0 0.30 1000)
SYMBOL res 1040 192 R0
SYMATTR InstName R12
SYMATTR Value 8
SYMATTR SpiceLine pwr=10
SYMBOL voltage 1232 16 R0
WINDOW 123 0 0 Left 0
WINDOW 39 0 0 Left 0
SYMATTR InstName V2
SYMATTR Value 12
TEXT -528 472 Left 2 !.ac oct 100 1 1000k
